18
	Energy: -744272.1201960
Si        -1.97199        0.03198        0.02178
O         -1.49839       -1.04281       -1.16096
O         -3.61529        0.07731        0.01517
O         -1.38578        1.53664       -0.16122
O         -1.32513       -0.62357        1.41007
H         -1.61852       -1.51781        1.62751
H         -0.41713        1.65614       -0.27249
H         -4.03179        0.89720        0.30533
Si         3.42678       -0.05837       -0.05033
O          5.06417        0.04145       -0.12657
O          2.82560        1.47523       -0.38709
O          3.01942       -0.50450        1.48206
O          2.83393       -1.05214       -1.20489
H          1.87460       -1.19599       -1.27668
H          2.06699       -0.57461        1.66811
H          5.56189       -0.58820        0.40665
H          3.29287        2.19738        0.05208
H         -1.95012       -0.97878       -2.01163
