18
	Energy: -744272.1201960
Si        -1.97199        0.03198        0.02178
O         -1.49839       -1.04281       -1.16096
O         -3.61529        0.07731        0.01517
O         -1.38578        1.53664       -0.16122
O         -1.32513       -0.62357        1.41007
H         -1.61852       -1.51781        1.62751
H         -0.41713        1.65614       -0.27249
H         -4.03179        0.89720        0.30533
Si         2.42701       -0.04164       -0.03698
O          4.06440        0.05818       -0.11322
O          1.82582        1.49196       -0.37374
O          2.01965       -0.48777        1.49541
O          1.83416       -1.03541       -1.19154
H          0.87483       -1.17926       -1.26332
H          1.06722       -0.55788        1.68146
H          4.56212       -0.57147        0.42001
H          2.29310        2.21411        0.06544
H         -1.95012       -0.97878       -2.01163
