18
	Energy: -744272.1201960
Si        -1.97199        0.03198        0.02178
O         -1.49839       -1.04281       -1.16096
O         -3.61529        0.07731        0.01517
O         -1.38578        1.53664       -0.16122
O         -1.32513       -0.62357        1.41007
H         -1.61852       -1.51781        1.62751
H         -0.41713        1.65614       -0.27249
H         -4.03179        0.89720        0.30533
Si         2.12707       -0.03662       -0.03297
O          3.76447        0.06320       -0.10921
O          1.52589        1.49698       -0.36973
O          1.71972       -0.48276        1.49942
O          1.53422       -1.03039       -1.18753
H          0.57490       -1.17424       -1.25932
H          0.76729       -0.55286        1.68547
H          4.26219       -0.56645        0.42401
H          1.99317        2.21913        0.06944
H         -1.95012       -0.97878       -2.01163
