18
	Energy: -744272.1201960
Si        -1.97199        0.03198        0.02178
O         -1.49839       -1.04281       -1.16096
O         -3.61529        0.07731        0.01517
O         -1.38578        1.53664       -0.16122
O         -1.32513       -0.62357        1.41007
H         -1.61852       -1.51781        1.62751
H         -0.41713        1.65614       -0.27249
H         -4.03179        0.89720        0.30533
Si         2.52698       -0.04331       -0.03831
O          4.16438        0.05651       -0.11455
O          1.92580        1.49029       -0.37507
O          2.11963       -0.48945        1.49408
O          1.93413       -1.03708       -1.19287
H          0.97481       -1.18094       -1.26466
H          1.16720       -0.55956        1.68013
H          4.66210       -0.57315        0.41867
H          2.39308        2.21243        0.06410
H         -1.95012       -0.97878       -2.01163
