18
	Energy: -744272.1201960
Si        -1.97199        0.03198        0.02178
O         -1.49839       -1.04281       -1.16096
O         -3.61529        0.07731        0.01517
O         -1.38578        1.53664       -0.16122
O         -1.32513       -0.62357        1.41007
H         -1.61852       -1.51781        1.62751
H         -0.41713        1.65614       -0.27249
H         -4.03179        0.89720        0.30533
Si         1.92712       -0.03327       -0.03030
O          3.56452        0.06655       -0.10654
O          1.32594        1.50033       -0.36706
O          1.51977       -0.47941        1.50209
O          1.33427       -1.02704       -1.18486
H          0.37495       -1.17090       -1.25665
H          0.56733       -0.54952        1.68814
H          4.06223       -0.56311        0.42668
H          1.79321        2.22247        0.07211
H         -1.95012       -0.97878       -2.01163
