18
	Energy: -744272.1201960
Si        -1.97199        0.03198        0.02178
O         -1.49839       -1.04281       -1.16096
O         -3.61529        0.07731        0.01517
O         -1.38578        1.53664       -0.16122
O         -1.32513       -0.62357        1.41007
H         -1.61852       -1.51781        1.62751
H         -0.41713        1.65614       -0.27249
H         -4.03179        0.89720        0.30533
Si         3.12685       -0.05335       -0.04632
O          4.76424        0.04647       -0.12257
O          2.52566        1.48025       -0.38309
O          2.71949       -0.49949        1.48606
O          2.53400       -1.04712       -1.20088
H          1.57467       -1.19097       -1.27267
H          1.76706       -0.56959        1.67212
H          5.26196       -0.58318        0.41066
H          2.99294        2.20240        0.05609
H         -1.95012       -0.97878       -2.01163
