18
	Energy: -744272.1201960
Si        -1.97199        0.03198        0.02178
O         -1.49839       -1.04281       -1.16096
O         -3.61529        0.07731        0.01517
O         -1.38578        1.53664       -0.16122
O         -1.32513       -0.62357        1.41007
H         -1.61852       -1.51781        1.62751
H         -0.41713        1.65614       -0.27249
H         -4.03179        0.89720        0.30533
Si         2.02710       -0.03494       -0.03163
O          3.66449        0.06488       -0.10788
O          1.42592        1.49866       -0.36840
O          1.61975       -0.48108        1.50075
O          1.43425       -1.02871       -1.18619
H          0.47492       -1.17257       -1.25798
H          0.66731       -0.55119        1.68681
H          4.16221       -0.56478        0.42535
H          1.89319        2.22080        0.07078
H         -1.95012       -0.97878       -2.01163
