51
	Energy: -2031602.9611714
Si        -2.76356        0.50373       -0.80236
O         -2.64408       -0.06281        0.73154
O         -3.71347        1.85730       -0.78988
O         -3.46982       -0.65647       -1.71915
O         -1.26704        0.87374       -1.30905
Zr         0.61539        0.56601       -0.67154
Si        -2.95182       -0.40071        2.29443
Si        -5.29329        2.11319       -0.39088
Si        -4.65193       -1.79724       -1.46558
O          1.41394       -1.04170       -1.38137
Zr         3.06809       -2.22774       -1.37329
O          0.75329        0.24323        1.32177
Zr         2.00282       -0.85379        2.38166
O          1.83862        2.06957       -1.02209
Zr         3.67076        2.68494       -0.56316
O         -6.30259        1.76732       -1.65717
O         -5.44687        3.68028        0.05984
O         -5.76721        1.08545        0.81639
O         -3.50601       -1.97299        2.26095
O         -4.03994        0.60192        2.98173
O         -1.51274       -0.31185        3.10045
O         -4.97390       -2.52135       -2.90029
O         -6.04082       -1.02047       -0.97357
O         -4.21989       -2.88703       -0.34024
H         -6.38886       -0.36717       -1.60281
H         -4.21233       -2.86813       -3.37752
H         -3.92943       -2.60256        0.54609
H         -4.78107        0.84544        2.39047
H         -6.04405        0.21773        0.45311
H         -6.24075        2.34318       -2.42744
H         -4.62851        4.12226        0.31086
H         -0.83615        0.10482        2.53314
H         -4.05643       -2.25627        2.99954
O          3.34063       -2.68771       -3.26702
H          3.97636       -2.40286       -3.93075
O          4.60024       -1.10084       -0.96656
H          4.77570       -0.33846       -0.37885
O          2.96821       -4.10004       -0.59183
H          3.07241       -4.90991       -1.10320
O          4.43260        1.22831        0.55644
H          4.31864        1.01892        1.50747
O          4.75120        2.86704       -2.18264
H          5.13921        3.47878       -2.81273
O          3.53343        4.34326        0.45028
H          3.04537        5.07362        0.83517
O          2.68060       -2.24471        1.11366
H          2.72389       -3.22053        1.05936
O          3.52171        0.29637        3.00220
H          3.81550        0.58049        3.87464
O          0.97026       -1.55960        3.86565
H          0.01348       -1.43173        3.99773
