15
	Energy: -544130.8392758
Zr         1.39034       -0.00177       -0.01073
Si        -2.20375       -0.10562        0.02641
O         -0.57608       -0.07401        0.01167
O         -2.69234        1.32081        0.70155
O         -2.73324       -1.45098        0.84705
O         -2.90864       -0.20788       -1.46664
H         -2.21395       -1.71164        1.61576
H         -3.04675       -1.10116       -1.80103
H         -3.62397        1.54116        0.59147
O          2.02631       -0.89592       -1.60523
H          2.43313       -1.22024       -2.40844
O          2.01869       -0.92466        1.57573
H          2.54280       -1.29373        2.28672
O          1.98300        1.83591        0.00127
H          2.18026        2.77217        0.02392
