15
	Energy: -543854.4718975
Si        -1.90698       -0.04093       -0.13187
O         -2.77661        1.33183       -0.36828
O         -2.96472       -1.30138       -0.09409
O         -0.62539       -0.32160       -1.09659
Zr         0.86735        0.01117        0.26950
H         -3.57833        1.23701       -0.89318
H         -2.59505       -2.14280       -0.38501
O         -1.07346        0.19403        1.32035
H         -1.20745        1.04108        1.76425
O          1.07720       -1.46289        1.55741
H          0.66248       -1.64607        2.40641
O          0.80555        1.81170        1.09696
H          1.46876        2.50806        1.03366
O          2.52131       -0.00984       -0.77260
H          3.34720       -0.49014       -0.87241
