15
	Energy: -543854.4718975
Si        -1.90698       -0.04093       -0.13187
O         -2.77661        1.33183       -0.36828
O         -2.96472       -1.30138       -0.09409
O         -0.62539       -0.32160       -1.09659
Zr         1.33713       -0.07542       -0.55517
H         -3.57833        1.23701       -0.89318
H         -2.59505       -2.14280       -0.38501
O         -1.07346        0.19403        1.32035
H         -1.20745        1.04108        1.76425
O          2.01252       -1.53366        0.58191
H          2.01068       -1.66651        1.53517
O          1.75810        1.74165        0.11675
H          2.36310        2.38363       -0.27133
O          2.34695       -0.24517       -2.22053
H          3.01124       -0.78937       -2.65100
