15
	Energy: -543854.4718975
Si        -1.90698       -0.04093       -0.13187
O         -2.77661        1.33183       -0.36828
O         -2.96472       -1.30138       -0.09409
O         -0.62539       -0.32160       -1.09659
Zr         1.40186       -0.19560       -1.37871
H         -3.57833        1.23701       -0.89318
H         -2.59505       -2.14280       -0.38501
O         -1.07346        0.19403        1.32035
H         -1.20745        1.04108        1.76425
O          2.39179       -1.67199       -0.53260
H          2.75833       -1.78488        0.35015
O          2.14934        1.60278       -1.00785
H          2.58590        2.19497       -1.63034
O          1.66391       -0.46628       -3.29705
H          2.07513       -1.06219       -3.92834
