15
	Energy: -543854.4718975
Si        -1.90698       -0.04093       -0.13187
O         -2.77661        1.33183       -0.36828
O         -2.96472       -1.30138       -0.09409
O         -0.62539       -0.32160       -1.09659
Zr         1.05220       -0.00836        0.04042
H         -3.57833        1.23701       -0.89318
H         -2.59505       -2.14280       -0.38501
O         -1.07346        0.19403        1.32035
H         -1.20745        1.04108        1.76425
O          1.41157       -1.47346        1.30529
H          1.11745       -1.63858        2.20673
O          1.14542        1.80150        0.84426
H          1.80728        2.48215        0.67865
O          2.54127       -0.07708       -1.22446
H          3.33460       -0.57675       -1.43351
