15
	Energy: -543854.4718975
Si        -1.90698       -0.04093       -0.13187
O         -2.77661        1.33183       -0.36828
O         -2.96472       -1.30138       -0.09409
O         -0.62539       -0.32160       -1.09659
Zr         1.08161       -0.01253       -0.00304
H         -3.57833        1.23701       -0.89318
H         -2.59505       -2.14280       -0.38501
O         -1.07346        0.19403        1.32035
H         -1.20745        1.04108        1.76425
O          1.46725       -1.47641        1.25550
H          1.19539       -1.63853        2.16444
O          1.20206        1.79860        0.79428
H          1.86212        2.47633        0.61052
O          2.53793       -0.08964       -1.30501
H          3.32380       -0.59282       -1.53298
