15
	Energy: -543854.4718975
Si        -1.90698       -0.04093       -0.13187
O         -2.77661        1.33183       -0.36828
O         -2.96472       -1.30138       -0.09409
O         -0.62539       -0.32160       -1.09659
Zr         1.38180       -0.09986       -0.73988
H         -3.57833        1.23701       -0.89318
H         -2.59505       -2.14280       -0.38501
O         -1.07346        0.19403        1.32035
H         -1.20745        1.04108        1.76425
O          2.13895       -1.55964        0.34241
H          2.22301       -1.68576        1.29287
O          1.88761        1.71564       -0.12461
H          2.46305        2.34612       -0.57198
O          2.23170       -0.29580       -2.48952
H          2.84607       -0.85249       -2.97468
