15
	Energy: -543854.4718975
Si        -1.90698       -0.04093       -0.13187
O         -2.77661        1.33183       -0.36828
O         -2.96472       -1.30138       -0.09409
O         -0.62539       -0.32160       -1.09659
Zr         0.68293        0.02248        0.44455
H         -3.57833        1.23701       -0.89318
H         -2.59505       -2.14280       -0.38501
O         -1.07346        0.19403        1.32035
H         -1.20745        1.04108        1.76425
O          0.76245       -1.46204        1.73508
H          0.25089       -1.66224        2.52538
O          0.48605        1.81213        1.27451
H          1.13851        2.52098        1.29898
O          2.45172        0.04302       -0.38786
H          3.29270       -0.42118       -0.39038
