15
	Energy: -543854.4718975
Si        -1.90698       -0.04093       -0.13187
O         -2.77661        1.33183       -0.36828
O         -2.96472       -1.30138       -0.09409
O         -0.62539       -0.32160       -1.09659
Zr         1.21744       -0.03779       -0.24299
H         -3.57833        1.23701       -0.89318
H         -2.59505       -2.14280       -0.38501
O         -1.07346        0.19403        1.32035
H         -1.20745        1.04108        1.76425
O          1.73822       -1.49714        0.97138
H          1.58640       -1.64469        1.91028
O          1.47804        1.77808        0.50878
H          2.12093        2.43999        0.23071
O          2.48613       -0.15809       -1.72552
H          3.22479       -0.67983       -2.04943
