15
	Energy: -543854.4718975
Si        -1.90698       -0.04093       -0.13187
O         -2.77661        1.33183       -0.36828
O         -2.96472       -1.30138       -0.09409
O         -0.62539       -0.32160       -1.09659
Zr         1.00003       -0.00177        0.11210
H         -3.57833        1.23701       -0.89318
H         -2.59505       -2.14280       -0.38501
O         -1.07346        0.19403        1.32035
H         -1.20745        1.04108        1.76425
O          1.31472       -1.46920        1.38615
H          0.98348       -1.63955        2.27363
O          1.04692        1.80566        0.92538
H          1.71075        2.49116        0.79052
O          2.54216       -0.05624       -1.08824
H          3.34696       -0.55001       -1.26493
