15
	Energy: -543854.4718975
Si        -1.90698       -0.04093       -0.13187
O         -2.77661        1.33183       -0.36828
O         -2.96472       -1.30138       -0.09409
O         -0.62539       -0.32160       -1.09659
Zr         1.12067       -0.01868       -0.06474
H         -3.57833        1.23701       -0.89318
H         -2.59505       -2.14280       -0.38501
O         -1.07346        0.19403        1.32035
H         -1.20745        1.04108        1.76425
O          1.54260       -1.48105        1.18388
H          1.30206       -1.63911        2.10231
O          1.27875        1.79403        0.72236
H          1.93553        2.46765        0.51343
O          2.52982       -0.10739       -1.41692
H          3.30449       -0.61546       -1.67088
