15
	Energy: -543854.4718975
Si        -1.90698       -0.04093       -0.13187
O         -2.77661        1.33183       -0.36828
O         -2.96472       -1.30138       -0.09409
O         -0.62539       -0.32160       -1.09659
Zr         1.26103       -0.04897       -0.34008
H         -3.57833        1.23701       -0.89318
H         -2.59505       -2.14280       -0.38501
O         -1.07346        0.19403        1.32035
H         -1.20745        1.04108        1.76425
O          1.83226       -1.50744        0.85246
H          1.72778       -1.64994        1.79857
O          1.57395        1.76783        0.38914
H          2.20680        2.42348        0.07544
O          2.45085       -0.18539       -1.88529
H          3.16782       -0.71430       -2.24438
