15
	Energy: -543854.4718975
Si        -1.90698       -0.04093       -0.13187
O         -2.77661        1.33183       -0.36828
O         -2.96472       -1.30138       -0.09409
O         -0.62539       -0.32160       -1.09659
Zr         0.92912        0.00574        0.20016
H         -3.57833        1.23701       -0.89318
H         -2.59505       -2.14280       -0.38501
O         -1.07346        0.19403        1.32035
H         -1.20745        1.04108        1.76425
O          1.18638       -1.46512        1.48312
H          0.80880       -1.64239        2.35050
O          0.91648        1.80960        1.02257
H          1.58086        2.50114        0.92701
O          2.53467       -0.03040       -0.91468
H          3.35202       -0.51673       -1.04941
