15
	Energy: -543854.4718975
Si        -1.90698       -0.04093       -0.13187
O         -2.77661        1.33183       -0.36828
O         -2.96472       -1.30138       -0.09409
O         -0.62539       -0.32160       -1.09659
Zr         1.27686       -0.27962       -1.86137
H         -3.57833        1.23701       -0.89318
H         -2.59505       -2.14280       -0.38501
O         -1.07346        0.19403        1.32035
H         -1.20745        1.04108        1.76425
O          2.39055       -1.78032       -1.24235
H          2.95528       -1.89372       -0.47126
O          2.15300        1.49362       -1.72567
H          2.44639        2.05846       -2.44931
O          1.05855       -0.59026       -3.77913
H          1.28450       -1.21162       -4.47598
