15
	Energy: -544130.6326571
Zr         1.37839       -0.01367       -0.01029
Si        -2.16687        0.05637        0.00991
O         -0.57498       -0.28442        0.01654
O         -2.32960        1.53657        0.72785
O         -3.00596       -1.15593        0.77664
O         -2.84756        0.16844       -1.49404
H         -2.56536       -1.56715        1.52839
H         -3.18184       -0.65771       -1.86096
H         -3.18238        1.97019        0.61256
O          2.15239       -1.31312       -1.21960
H          2.65751       -1.85105       -1.82887
O          2.04402       -0.29207        1.78758
H          2.51011       -0.31610        2.62313
O          1.78195        1.77520       -0.61110
H          1.91399        2.68442       -0.87911
