15
	Energy: -544130.6326571
Zr         1.37839       -0.01367       -0.01029
Si        -2.19652       -0.13992        0.02007
O         -0.57498       -0.28442        0.01654
O         -2.53372        1.30916        0.74076
O         -2.87704       -1.44566        0.79049
O         -2.89515       -0.11087       -1.47954
H         -2.38499       -1.80053        1.53903
H         -3.12868       -0.97140       -1.84540
H         -3.43364        1.63581        0.63122
O          2.15239       -1.31312       -1.21960
H          2.65751       -1.85105       -1.82887
O          2.04402       -0.29207        1.78758
H          2.51011       -0.31610        2.62313
O          1.78195        1.77520       -0.61110
H          1.91399        2.68442       -0.87911
