15
	Energy: -544130.6326571
Zr         1.37839       -0.01367       -0.01029
Si        -2.17258        0.02857        0.01135
O         -0.57498       -0.28442        0.01654
O         -2.36045        1.50563        0.72963
O         -2.98973       -1.19825        0.77868
O         -2.85645        0.12893       -1.49197
H         -2.54136       -1.60181        1.52999
H         -3.17660       -0.70288       -1.85871
H         -3.22076        1.92434        0.61515
O          2.15239       -1.31312       -1.21960
H          2.65751       -1.85105       -1.82887
O          2.04402       -0.29207        1.78758
H          2.51011       -0.31610        2.62313
O          1.78195        1.77520       -0.61110
H          1.91399        2.68442       -0.87911
