15
	Energy: -544130.6326571
Zr         1.37839       -0.01367       -0.01029
Si        -2.19051       -0.08349        0.01716
O         -0.57498       -0.28442        0.01654
O         -2.47827        1.37665        0.73697
O         -2.91748       -1.36452        0.78664
O         -2.88505       -0.03050       -1.48369
H         -2.43942       -1.73612        1.53613
H         -3.14778       -0.88247       -1.84978
H         -3.36606        1.73444        0.62576
O          2.15239       -1.31312       -1.21960
H          2.65751       -1.85105       -1.82887
O          2.04402       -0.29207        1.78758
H          2.51011       -0.31610        2.62313
O          1.78195        1.77520       -0.61110
H          1.91399        2.68442       -0.87911
