15
	Energy: -544130.6326571
Zr         1.37839       -0.01367       -0.01029
Si        -2.14686        0.13910        0.00557
O         -0.57498       -0.28442        0.01654
O         -2.23390        1.62609        0.72266
O         -3.05019       -1.02736        0.77041
O         -2.81679        0.28597       -1.50021
H         -2.63368       -1.46073        1.52345
H         -3.19282       -0.52173       -1.86779
H         -3.06254        2.10364        0.60498
O          2.15239       -1.31312       -1.21960
H          2.65751       -1.85105       -1.82887
O          2.04402       -0.29207        1.78758
H          2.51011       -0.31610        2.62313
O          1.78195        1.77520       -0.61110
H          1.91399        2.68442       -0.87911
