15
	Energy: -544130.6326571
Zr         1.37839       -0.01367       -0.01029
Si        -2.18676       -0.05536        0.01571
O         -0.57498       -0.28442        0.01654
O         -2.44966        1.40966        0.73510
O         -2.93663       -1.32343        0.78468
O         -2.87894        0.00954       -1.48576
H         -2.46578       -1.70321        1.53463
H         -3.15616       -0.83777       -1.85200
H         -3.33098        1.78286        0.62307
O          2.15239       -1.31312       -1.21960
H          2.65751       -1.85105       -1.82887
O          2.04402       -0.29207        1.78758
H          2.51011       -0.31610        2.62313
O          1.78195        1.77520       -0.61110
H          1.91399        2.68442       -0.87911
