15
	Energy: -544130.6326571
Zr         1.37839       -0.01367       -0.01029
Si        -2.20263       -0.25323        0.02586
O         -0.57498       -0.28442        0.01654
O         -2.63739        1.16858        0.74859
O         -2.78778       -1.60348        0.79790
O         -2.90691       -0.27241       -1.47126
H         -2.26956       -1.92346        1.54450
H         -3.08121       -1.14699       -1.83680
H         -3.55827        1.43179        0.64241
O          2.15239       -1.31312       -1.21960
H          2.65751       -1.85105       -1.82887
O          2.04402       -0.29207        1.78758
H          2.51011       -0.31610        2.62313
O          1.78195        1.77520       -0.61110
H          1.91399        2.68442       -0.87911
