15
	Energy: -544130.6326571
Zr         1.37839       -0.01367       -0.01029
Si        -2.13112        0.19363        0.00270
O         -0.57498       -0.28442        0.01654
O         -2.16755        1.68293        0.71933
O         -3.07591       -0.94044        0.76617
O         -2.79286        0.36336       -1.50430
H         -2.67608       -1.38786        1.52003
H         -3.19617       -0.43085       -1.87239
H         -2.97883        2.18905        0.60009
O          2.15239       -1.31312       -1.21960
H          2.65751       -1.85105       -1.82887
O          2.04402       -0.29207        1.78758
H          2.51011       -0.31610        2.62313
O          1.78195        1.77520       -0.61110
H          1.91399        2.68442       -0.87911
